# Packages
 &PACKAGES
 useKPP    = .TRUE.,
 useEXF    = .TRUE.,
 useCAL    = .TRUE.,
 useSEAICE = .TRUE.,
 useDiagnostics = .TRUE.,
 useRBCS   = .TRUE.,
 useMNC    = .TRUE.,
 usePTRACERS=.TRUE.,
 useGCHEM = .true.,
 &
